Version 4
SHEET 1 2336 948
WIRE 912 -48 848 -48
WIRE 848 -32 848 -48
WIRE 912 -32 912 -48
WIRE 0 48 -592 48
WIRE 256 48 0 48
WIRE 352 48 256 48
WIRE 1472 48 1440 48
WIRE 1568 48 1552 48
WIRE 800 80 704 80
WIRE 848 80 848 48
WIRE 800 96 800 80
WIRE 816 96 800 96
WIRE 352 112 352 48
WIRE 640 112 576 112
WIRE 0 128 0 48
WIRE 256 128 256 48
WIRE 1296 128 1168 128
WIRE 1440 128 1440 48
WIRE 1472 128 1440 128
WIRE 432 144 432 112
WIRE 576 144 576 112
WIRE 576 144 432 144
WIRE 1568 144 1568 48
WIRE 1568 144 1536 144
WIRE 1632 144 1568 144
WIRE 1760 144 1712 144
WIRE 640 160 640 112
WIRE 704 160 704 80
WIRE 704 160 640 160
WIRE 1376 160 1376 128
WIRE 1472 160 1376 160
WIRE 1120 176 992 176
WIRE 1168 176 1168 128
WIRE 1168 176 1120 176
WIRE 800 192 688 192
WIRE 576 224 576 208
WIRE 576 224 432 224
WIRE 1760 224 1760 144
WIRE -592 240 -592 128
WIRE 0 240 0 192
WIRE 0 240 -592 240
WIRE 256 240 256 208
WIRE 256 240 0 240
WIRE 352 240 352 224
WIRE 352 240 256 240
WIRE 576 256 576 224
WIRE 688 256 688 192
WIRE 688 256 576 256
WIRE 800 256 800 192
WIRE 816 256 800 256
WIRE 1520 272 1472 272
WIRE 1616 272 1600 272
WIRE 0 320 0 240
WIRE 1120 336 1120 176
WIRE 1376 336 1120 336
WIRE 1472 336 1472 272
WIRE 1472 336 1456 336
WIRE 1504 336 1472 336
WIRE 928 352 928 240
WIRE 1616 352 1616 272
WIRE 1616 352 1568 352
WIRE 1648 352 1616 352
WIRE 1792 352 1728 352
WIRE 1376 368 1200 368
WIRE 1504 368 1456 368
WIRE 848 400 848 352
WIRE 1200 432 1200 368
WIRE 928 448 928 432
WIRE 1792 480 1792 352
WIRE 1200 528 1200 512
FLAG 848 400 0
FLAG 912 -32 0
FLAG 928 448 0
FLAG 0 320 0
FLAG 1200 528 0
FLAG 1760 224 0
FLAG 1792 480 0
FLAG -624 704 0
FLAG -624 928 0
FLAG -624 848 VDD
FLAG 1504 176 VDD
FLAG -624 624 VP
FLAG 1536 384 VDD
FLAG 1504 112 VP
FLAG 1536 320 VP
SYMBOL cap -16 128 R0
SYMATTR InstName C1
SYMATTR Value 1µ
SYMATTR SpiceLine V=35 Irms=0 Rser=0 Lser=0 mfg="Murata" pn="GCM21BR7YA105MA55" type="X7R"
SYMBOL res 240 112 R0
SYMATTR InstName R1
SYMATTR Value 0.5R
SYMATTR SpiceLine tol=1% pwr=50
SYMBOL res 448 96 R90
WINDOW 0 0 56 VBottom 2
WINDOW 3 32 56 VTop 2
SYMATTR InstName R2
SYMATTR Value 4.7k
SYMBOL res 448 208 R90
WINDOW 0 0 56 VBottom 2
WINDOW 3 32 56 VTop 2
SYMATTR InstName R3
SYMATTR Value 4.7k
SYMBOL cap 560 144 R0
SYMATTR InstName C2
SYMATTR Value 82pf
SYMBOL voltage 848 64 R180
WINDOW 0 24 96 Left 2
WINDOW 3 24 16 Left 2
WINDOW 123 0 0 Left 0
WINDOW 39 0 0 Left 0
SYMATTR InstName V2
SYMATTR Value 8
SYMBOL voltage 848 368 R180
WINDOW 0 24 96 Left 2
WINDOW 3 24 16 Left 2
WINDOW 123 0 0 Left 0
WINDOW 39 0 0 Left 0
SYMATTR InstName V3
SYMATTR Value 8
SYMBOL OpAmps\\AD8222 848 176 R0
SYMATTR InstName U2
SYMBOL voltage 928 336 R0
WINDOW 123 0 0 Left 0
WINDOW 39 0 0 Left 0
SYMATTR InstName V4
SYMATTR Value 2.048
SYMBOL current -592 128 R180
WINDOW 0 24 80 Left 2
WINDOW 3 24 0 Left 2
WINDOW 123 0 0 Left 0
WINDOW 39 0 0 Left 0
SYMATTR InstName I1
SYMATTR Value SINE(0 4.096 50)
SYMBOL res 1472 320 R90
WINDOW 0 206 32 VBottom 2
WINDOW 3 32 56 VTop 2
SYMATTR InstName R5
SYMATTR Value 10k
SYMBOL res 1472 352 R90
WINDOW 0 175 -13 VBottom 2
WINDOW 3 32 56 VTop 2
SYMATTR InstName R6
SYMATTR Value 5k
SYMBOL voltage 1200 416 R0
WINDOW 123 0 0 Left 0
WINDOW 39 0 0 Left 0
SYMATTR InstName V1
SYMATTR Value 2.048
SYMBOL res 1392 112 R90
WINDOW 0 0 56 VBottom 2
WINDOW 3 32 56 VTop 2
SYMATTR InstName R4
SYMATTR Value 10k
SYMBOL res 1568 32 R90
WINDOW 0 0 56 VBottom 2
WINDOW 3 32 56 VTop 2
SYMATTR InstName R8
SYMATTR Value 10k
SYMBOL res 1728 128 R90
WINDOW 0 0 56 VBottom 2
WINDOW 3 32 56 VTop 2
SYMATTR InstName R9
SYMATTR Value 1k
SYMBOL res 1744 336 R90
WINDOW 0 0 56 VBottom 2
WINDOW 3 32 56 VTop 2
SYMATTR InstName R10
SYMATTR Value 1k
SYMBOL voltage -624 608 R0
WINDOW 123 0 0 Left 0
WINDOW 39 0 0 Left 0
SYMATTR InstName V5
SYMATTR Value 6
SYMBOL voltage -624 832 R0
WINDOW 123 0 0 Left 0
WINDOW 39 0 0 Left 0
SYMATTR InstName V6
SYMATTR Value -6
SYMBOL OpAmps\\OP07 1504 80 R0
SYMATTR InstName U1
SYMBOL OpAmps\\OP07 1536 288 R0
SYMATTR InstName U3
SYMBOL res 1616 256 R90
WINDOW 0 0 56 VBottom 2
WINDOW 3 32 56 VTop 2
SYMATTR InstName R7
SYMATTR Value 10k
TEXT 424 352 Left 2 !.inc opamp.sub
TEXT -482 328 Left 2 !.tran 0 0.2 0.001 0.01
